
**** 10/30/25 11:33:57 **** PSpice 24.1.0 (23 January 2025) *** ID# 0 ********

 ** Profile: "summing node-V set, R sweep"  [ d:\projekty\power_supply\pcb_design\simulations\summing node-PSpiceFiles\summing node\V


 ****     CIRCUIT DESCRIPTION


******************************************************************************




** Creating circuit file "V set, R sweep.cir" 
** WARNING: THIS AUTOMATICALLY GENERATED FILE MAY BE OVERWRITTEN BY SUBSEQUENT SIMULATIONS

*Libraries: 
* Profile Libraries :
* Local Libraries :
* From [PSPICE NETLIST] section of C:\Users\David\AppData\Roaming\SPB_Data\cdssetup\OrCAD_PSpice\24.1.0\PSpice.ini file:
.lib "nom.lib" 

*Analysis directives: 
.DC LIN PARAM V_node 3.3V 0V 0.1V 
.STEP LIN PARAM R_sweep 10 0.1 0.1 
.OPTIONS ADVCONV
.PROBE64 V(alias(*)) I(alias(*)) W(alias(*)) D(alias(*)) NOISE(alias(*)) 
.INC "..\summing node.net" 



**** INCLUDING "summing node.net" ****
* source SUMMING NODE
R_R1         OUT N00617 100k
R_R2         N00617 0 1.33k
V_V2         N00419 0 {V_node}
V_V3         N01621 0 0.6V
R_R3         N00617 N00419  9.31k TC=0,0 
E_U3         OUT 0 VALUE {LIMIT(V(N01621,N00617)*1E6,0,60)}
R_R5         N01902 N01934  5900 TC=0,0 
R_R6         N01902 0 1400
V_V5         N01978 0 0.6V
R_R4         OUT2 N01902 100k
E_U4         N01854 0 VALUE {LIMIT(V(N01978,N07342)*1E6,0,60)}
V_V_V_set         N01934 0 {V_node}
R_R7         N01854 OUT2  10m TC=0,0 
E_U6         N07346 0 VALUE {LIMIT(V(N01902,N07342)*1E6,0,60)}
D_D1         N07346 N07342 D1N4151_1 
R_R8         OUT2 0 {R_sweep}
.PARAM  r_sweep=10 v_node=0

**** RESUMING "V set, R sweep.cir" ****
.END

**** 10/30/25 11:33:57 **** PSpice 24.1.0 (23 January 2025) *** ID# 0 ********

 ** Profile: "summing node-V set, R sweep"  [ d:\projekty\power_supply\pcb_design\simulations\summing node-PSpiceFiles\summing node\V


 ****     Diode MODEL PARAMETERS


******************************************************************************




               D1N4151_1       
          IS    2.200000E-09 
           N    1.768        
         ISR    7.832000E-09 
         IKF    8.512000E-03 
          BV   75            
         IBV    5.000000E-06 
          RS     .5927       
          TT    5.771000E-09 
         CJO    1.725000E-12 
          VJ     .5          
           M     .08882      



          JOB CONCLUDED

**** 10/30/25 11:33:57 **** PSpice 24.1.0 (23 January 2025) *** ID# 0 ********

 ** Profile: "summing node-V set, R sweep"  [ d:\projekty\power_supply\pcb_design\simulations\summing node-PSpiceFiles\summing node\V


 ****     JOB STATISTICS SUMMARY

 ****     CURRENT STEP                     PARAM R_SWEEP =     .1   


******************************************************************************



  Total job time (using Solver 1)   =         .63
