
**** 10/27/25 00:57:39 **** PSpice 24.1.0 (23 January 2025) *** ID# 0 ********

 ** Profile: "CC-I set sweep"  [ d:\projekty\power_supply\pcb_design\simulations\summing node-PSpiceFiles\CC\I set sweep.sim ] 


 ****     CIRCUIT DESCRIPTION


******************************************************************************




** Creating circuit file "I set sweep.cir" 
** WARNING: THIS AUTOMATICALLY GENERATED FILE MAY BE OVERWRITTEN BY SUBSEQUENT SIMULATIONS

*Libraries: 
* Profile Libraries :
* Local Libraries :
* From [PSPICE NETLIST] section of C:\Users\David\AppData\Roaming\SPB_Data\cdssetup\OrCAD_PSpice\24.1.0\PSpice.ini file:
.lib "nom.lib" 

*Analysis directives: 
.DC LIN V_V_i_Set 0 3.3 1m 
.STEP PARAM R_out LIST 10, 1, 0.1 
.OPTIONS ADVCONV
.PROBE64 V(alias(*)) I(alias(*)) W(alias(*)) D(alias(*)) NOISE(alias(*)) 
.INC "..\CC.net" 



**** INCLUDING CC.net ****
* source SUMMING NODE
R_R5         N02810 N02842  5900 TC=0,0 
V_V6         N02842 0 {V_node}
R_R6         N02810 0 1400
V_V5         N02886 0 0.6V
R_R_sense         R_SENSE_1 OUT2  10m TC=0,0 
R_R4         OUT2 N02810 100k
E_U4         R_SENSE_1 0 VALUE {LIMIT(V(N02886,N05162)*1E6,0,60)}
R_R8         0 N03191  {R_out} TC=0,0 
V_I_AMP         OUT2 N03191 0Vdc
E_U5         I_SENSE 0 VALUE {LIMIT(V(N03449,N03538)*1E6,0,60)}
R_R9         N03538 OUT2 100k
R_R10         N03449 R_SENSE_1 100k
R_R12         N03449 0 200k
R_R11         N03538 I_SENSE 200k
R_R13         I_SENSE N05162 500
R_R15         N05162 0 10k
R_R14         N05162 N05200  2k TC=0,0 
D_D1         N06848 N05162 D1N4151_1 
E_U6         N06848 0 VALUE {LIMIT(V(N02810,N05162)*1E6,0,60)}
V_V_i_Set         N05200 0 {I_node}
.PARAM  r_out=1 v_node=0 i_node=2.5

**** RESUMING "I set sweep.cir" ****
.END

**** 10/27/25 00:57:39 **** PSpice 24.1.0 (23 January 2025) *** ID# 0 ********

 ** Profile: "CC-I set sweep"  [ d:\projekty\power_supply\pcb_design\simulations\summing node-PSpiceFiles\CC\I set sweep.sim ] 


 ****     Diode MODEL PARAMETERS


******************************************************************************




               D1N4151_1       
          IS    2.200000E-09 
           N    1.768        
         ISR    7.832000E-09 
         IKF    8.512000E-03 
          BV   75            
         IBV    5.000000E-06 
          RS     .5927       
          TT    5.771000E-09 
         CJO    1.725000E-12 
          VJ     .5          
           M     .08882      


Starting pseudo-transient algorithm.

INFO(ORPSIM-16594): To improve Pseudotransient Convergence and Performance, set following options to relax stabilization criteria for capacitor currents and inductor voltages: PTRANABSTOL=1e-5, PTRANVNTOL=1e-4

WARNING(ORPSIM-16534): Using high values of ITL4 for Speed Level > 0 may increase total simulation job time.

Starting pseudo-transient algorithm.

ERROR -- Convergence problem in DC sweep


  Last node voltages tried were:

 NODE   VOLTAGE     NODE   VOLTAGE     NODE   VOLTAGE     NODE   VOLTAGE


( OUT2)   24.0160  (N02810)     .2687 (N02842)    0.0000 (N02886)     .2696     

(N03191)   24.0160 (N03449)   16.0260 (N03538)   16.0260 (N05162)     .2695     

(N05200)    1.2095 (N06848)    0.0000 (I_SENSE)     .0480                       

(R_SENSE_1)   24.0400                 


  These voltages failed to converge:

    V(N02810)                 =   254.81mV  \   268.70mV
    V(R_SENSE_1)              =     22.80V  \     24.04V
    V(OUT2)                   =     22.78V  \     24.02V
    V(N03191)                 =     22.78V  \     24.02V
    V(N03449)                 =     15.20V  \     16.03V
    V(N03538)                 =     15.20V  \     16.03V

  These supply currents failed to converge:

    I(E_U4)                   =    -2.278A  \    -2.402A
    I(E_U5)                   =   518.76uA  \   522.86uA
    I(E_U6)                   =    10.29nA  \    65.80nA
    I(V_V6)                   =    43.19uA  \    45.54uA
    I(V_I_AMP)                =     2.278A  \     2.402A

ERROR(ORPSIM-15659): Discontinuing simulation due to convergence problem

**** Interrupt ****
