
**** 10/26/25 21:41:19 **** PSpice 24.1.0 (23 January 2025) *** ID# 0 ********

 ** Profile: "CC-Resistive sweep"  [ d:\projekty\power_supply\pcb_design\simulations\summing node-pspicefiles\cc\resistive sweep.sim 


 ****     CIRCUIT DESCRIPTION


******************************************************************************




** Creating circuit file "Resistive sweep.cir" 
** WARNING: THIS AUTOMATICALLY GENERATED FILE MAY BE OVERWRITTEN BY SUBSEQUENT SIMULATIONS

*Libraries: 
* Profile Libraries :
* Local Libraries :
* From [PSPICE NETLIST] section of C:\Users\David\AppData\Roaming\SPB_Data\cdssetup\OrCAD_PSpice\24.1.0\PSpice.ini file:
.lib "nom.lib" 

*Analysis directives: 
.DC LIN PARAM R_out 10 0.1 0.01 
.STEP LIN PARAM V_node 1 3.2 0.5 
.OPTIONS ADVCONV
.PROBE64 V(alias(*)) I(alias(*)) W(alias(*)) D(alias(*)) NOISE(alias(*)) 
.INC "..\CC.net" 



**** INCLUDING CC.net ****
* source SUMMING NODE
R_R5         N02810 N02842  5900 TC=0,0 
V_V6         N02842 0 {V_node}
R_R6         N02810 0 1400
V_V5         N02886 0 0.6V
R_R_sense         R_SENSE_1 OUT2  10m TC=0,0 
R_R4         OUT2 N02810 100k
E_U4         R_SENSE_1 0 VALUE {LIMIT(V(N02886,N05162)*1E6,0,60)}
R_R8         0 N03191  {R_out} TC=0,0 
V_I_AMP         OUT2 N03191 0Vdc
E_U5         I_SENSE 0 VALUE {LIMIT(V(N03449,N03538)*1E6,0,60)}
R_R9         N03538 OUT2 100k
R_R10         N03449 R_SENSE_1 100k
R_R12         N03449 0 200k
R_R11         N03538 I_SENSE 200k
R_R13         I_SENSE N05162 500
R_R15         N05162 0 10k
R_R14         N05162 N05200  2k TC=0,0 
D_D1         N06848 N05162 D1N4151_1 
E_U6         N06848 0 VALUE {LIMIT(V(N02810,N05162)*1E6,0,60)}
V_V8         N05200 0 {I_node}
.PARAM  r_out=2 v_node=0 i_node=2.5

**** RESUMING "Resistive sweep.cir" ****
.END

**** 10/26/25 21:41:19 **** PSpice 24.1.0 (23 January 2025) *** ID# 0 ********

 ** Profile: "CC-Resistive sweep"  [ d:\projekty\power_supply\pcb_design\simulations\summing node-pspicefiles\cc\resistive sweep.sim 


 ****     Diode MODEL PARAMETERS


******************************************************************************




               D1N4151_1       
          IS    2.200000E-09 
           N    1.768        
         ISR    7.832000E-09 
         IKF    8.512000E-03 
          BV   75            
         IBV    5.000000E-06 
          RS     .5927       
          TT    5.771000E-09 
         CJO    1.725000E-12 
          VJ     .5          
           M     .08882      


Starting pseudo-transient algorithm.

INFO(ORPSIM-16594): To improve Pseudotransient Convergence and Performance, set following options to relax stabilization criteria for capacitor currents and inductor voltages: PTRANABSTOL=1e-5, PTRANVNTOL=1e-4

Starting pseudo-transient algorithm.

Starting pseudo-transient algorithm.

Starting pseudo-transient algorithm.


          JOB CONCLUDED

**** 10/26/25 21:41:19 **** PSpice 24.1.0 (23 January 2025) *** ID# 0 ********

 ** Profile: "CC-Resistive sweep"  [ d:\projekty\power_supply\pcb_design\simulations\summing node-pspicefiles\cc\resistive sweep.sim 


 ****     JOB STATISTICS SUMMARY

 ****     CURRENT STEP                     PARAM V_NODE =    3     


******************************************************************************



  Total job time (using Solver 1)   =         .23
