
**** 09/21/25 13:06:57 **** PSpice 24.1.0 (23 January 2025) *** ID# 0 ********

 ** Profile: "summing node-summing node"  [ D:\Projekty\Power_supply\PCB_design\Simulations\Summing node-PSpiceFiles\summing node\sum


 ****     CIRCUIT DESCRIPTION


******************************************************************************




** Creating circuit file "summing node.cir" 
** WARNING: THIS AUTOMATICALLY GENERATED FILE MAY BE OVERWRITTEN BY SUBSEQUENT SIMULATIONS

*Libraries: 
* Profile Libraries :
* Local Libraries :
* From [PSPICE NETLIST] section of C:\Users\David\AppData\Roaming\SPB_Data\cdssetup\OrCAD_PSpice\24.1.0\PSpice.ini file:
.lib "nom.lib" 

*Analysis directives: 
.DC LIN V_V2 5V 0V 0.1V 
.OPTIONS ADVCONV
.PROBE64 V(alias(*)) I(alias(*)) W(alias(*)) D(alias(*)) NOISE(alias(*)) 
.INC "..\summing node.net" 



**** INCLUDING "summing node.net" ****
* source SUMMING NODE
R_R1         OUT N00617 100k
R_R2         N00617 0 1.33k
V_V1         N00354 0 60V
V_V2         N00419 0 {V_node}
V_V3         N00983 0 0.6V
R_R3         N00617 N00419  9.31k TC=0,0 
X_U2         N00983 N00617 N00354 0 OUT LM741
V_V4         M_UN0001 M_UN0002 0.6V
.PARAM  v_node=0.1v

**** RESUMING "summing node.cir" ****
.END

ERROR(ORPSIM-15141): Less than 2 connections at node M_UN0001.

ERROR(ORPSIM-15141): Less than 2 connections at node M_UN0002.

ERROR(ORPSIM-15142): Node M_UN0001 is floating

ERROR(ORPSIM-15142): Node M_UN0002 is floating
