
**** 11/12/25 18:32:30 **** PSpice 24.1.0 (23 January 2025) *** ID# 0 ********

 ** Profile: "Test-Test"  [ D:\Projekty\Power_supply\PCB_design\Simulations\LM5143\LM5143-PSpiceFiles\Test\Test.sim ] 


 ****     CIRCUIT DESCRIPTION


******************************************************************************




** Creating circuit file "Test.cir" 
** WARNING: THIS AUTOMATICALLY GENERATED FILE MAY BE OVERWRITTEN BY SUBSEQUENT SIMULATIONS

*Libraries: 
* Profile Libraries :
* Local Libraries :
* From [PSPICE NETLIST] section of C:\Users\David\AppData\Roaming\SPB_Data\cdssetup\OrCAD_PSpice\24.1.0\PSpice.ini file:
.lib "nom.lib" 

*Analysis directives: 
.TRAN  0 5m 0 
.OPTIONS ADVCONV
.PROBE64 V(alias(*)) I(alias(*)) W(alias(*)) D(alias(*)) NOISE(alias(*)) 
.INC "..\Test.net" 



**** INCLUDING Test.net ****
* source LM5143
C_Test_C1         0 OUT  1u  TC=0,0 
R_Test_R1         IN OUT  10k TC=0,0 
V_V1         IN 0  
+PULSE 0 5 0 0 0 1m 2m

**** RESUMING Test.cir ****
.END

WARNING(ORPSIM-15459): In device V_V1, default values (TR=1.00e-09, TF=1.00e-09) are used for zero TR and TF. Use the DEFTR and DEFTF options to control these defaults. To disable default value usage for zero TR and TF, specify the DISABLE_DEFAULT_PULSE_PARAMS option.

**** 11/12/25 18:32:30 **** PSpice 24.1.0 (23 January 2025) *** ID# 0 ********

 ** Profile: "Test-Test"  [ D:\Projekty\Power_supply\PCB_design\Simulations\LM5143\LM5143-PSpiceFiles\Test\Test.sim ] 


 ****     INITIAL TRANSIENT SOLUTION       TEMPERATURE =   27.000 DEG C


******************************************************************************



 NODE   VOLTAGE     NODE   VOLTAGE     NODE   VOLTAGE     NODE   VOLTAGE


(   IN)    0.0000  (  OUT)    0.0000  




    VOLTAGE SOURCE CURRENTS
    NAME         CURRENT

    V_V1         0.000E+00

    TOTAL POWER DISSIPATION   0.00E+00  WATTS



          JOB CONCLUDED

**** 11/12/25 18:32:30 **** PSpice 24.1.0 (23 January 2025) *** ID# 0 ********

 ** Profile: "Test-Test"  [ D:\Projekty\Power_supply\PCB_design\Simulations\LM5143\LM5143-PSpiceFiles\Test\Test.sim ] 


 ****     JOB STATISTICS SUMMARY


******************************************************************************



  Total job time (using Solver 1)   =        0.00
