
**** 11/12/25 18:29:05 **** PSpice 24.1.0 (23 January 2025) *** ID# 0 ********

 ** Profile: "Test-Test"  [ D:\Projekty\Power_supply\PCB_design\Simulations\LM5143\LM5143-PSpiceFiles\Test\Test.sim ] 


 ****     CIRCUIT DESCRIPTION


******************************************************************************




** Creating circuit file "Test.cir" 
** WARNING: THIS AUTOMATICALLY GENERATED FILE MAY BE OVERWRITTEN BY SUBSEQUENT SIMULATIONS

*Libraries: 
* Profile Libraries :
* Local Libraries :
* From [PSPICE NETLIST] section of C:\Users\David\AppData\Roaming\SPB_Data\cdssetup\OrCAD_PSpice\24.1.0\PSpice.ini file:
.lib "nom.lib" 

*Analysis directives: 
.TRAN  0 5m 0 
.OPTIONS ADVCONV
.PROBE64 V(alias(*)) I(alias(*)) W(alias(*)) D(alias(*)) NOISE(alias(*)) 
.INC "..\Test.net" 



**** INCLUDING Test.net ****
* source LM5143
C_Test_C1         N00090 OUT  1n  TC=0,0 
R_Test_R1         IN OUT  1k TC=0,0 
V_V1         IN N00090  
+PULSE 0 5 0 0 0 1m 2m

**** RESUMING Test.cir ****
.END

ERROR(ORPSIM-15142): Node N00090 is floating

ERROR(ORPSIM-15142): Node OUT is floating

ERROR(ORPSIM-15142): Node IN is floating
