
**** 10/20/25 12:19:08 **** PSpice 24.1.0 (23 January 2025) *** ID# 0 ********

 ** Profile: "CC-CC"  [ D:\Projekty\Power_supply\PCB_design\Simulations\Summing node-PSpiceFiles\CC\CC.sim ] 


 ****     CIRCUIT DESCRIPTION


******************************************************************************




** Creating circuit file "CC.cir" 
** WARNING: THIS AUTOMATICALLY GENERATED FILE MAY BE OVERWRITTEN BY SUBSEQUENT SIMULATIONS

*Libraries: 
* Profile Libraries :
* Local Libraries :
* From [PSPICE NETLIST] section of C:\Users\David\AppData\Roaming\SPB_Data\cdssetup\OrCAD_PSpice\24.1.0\PSpice.ini file:
.lib "nom.lib" 

*Analysis directives: 
.TRAN  0 10u 0 1n 
.OPTIONS ADVCONV
.PROBE64 V(alias(*)) I(alias(*)) W(alias(*)) D(alias(*)) NOISE(alias(*)) 
.INC "..\CC.net" 



**** INCLUDING CC.net ****
* source SUMMING NODE
R_R5         N02810 N02842  5900 TC=0,0 
V_V6         N02842 0 {V_node}
R_R6         N02810 0 1400
V_V5         N02886 0 0.6V
R_R_sense         R_SENSE_1 OUT2  10m TC=0,0 
R_R4         OUT2 N02810 100k
E_U4         R_SENSE_1 0 VALUE {LIMIT(V(N02886,N02810)*1E6,0,60)}
R_R8         0 N03191  {R_out} TC=0,0 
V_I_AMP         OUT2 N03191 0Vdc
E_U5         N03612 0 VALUE {LIMIT(V(N03538,N03449)*1E6,0,60)}
R_R9         N03538 OUT2 100k
R_R10         N03449 R_SENSE_1 100k
Q_Q1         0 N03612 N03449 BC557A 
.PARAM  r_out=1 v_node=1.5

**** RESUMING CC.cir ****
.END

**** 10/20/25 12:19:08 **** PSpice 24.1.0 (23 January 2025) *** ID# 0 ********

 ** Profile: "CC-CC"  [ D:\Projekty\Power_supply\PCB_design\Simulations\Summing node-PSpiceFiles\CC\CC.sim ] 


 ****     BJT MODEL PARAMETERS


******************************************************************************




               BC557A          
               PNP             
       LEVEL    1            
          IS    1.020000E-15 
          BF  174.7          
          NF    1            
         VAF   73.79         
         IKF     .1023       
         ISE   10.730000E-15 
          NE    1.644        
          BR    4.432        
          NR    1            
         IKR    2.237        
         ISC   14.740000E-15 
          NC    1.296        
          NK     .5033       
         ISS    0            
          RE    0            
          RC    1.039        
         CJE   30.000000E-12 
         VJE     .5          
         MJE     .3333       
         CJC    9.810000E-12 
         VJC     .4865       
         MJC     .332        
        XCJC    1            
         CJS    0            
         VJS     .75         
          TF  830.300000E-12 
         XTF   10.32         
         VTF   10            
         ITF     .8981       
          TR   10.000000E-09 
         XTB    1.5          
          KF    0            
          AF    1            
          CN    2.2          
           D     .52         


**** 10/20/25 12:19:08 **** PSpice 24.1.0 (23 January 2025) *** ID# 0 ********

 ** Profile: "CC-CC"  [ D:\Projekty\Power_supply\PCB_design\Simulations\Summing node-PSpiceFiles\CC\CC.sim ] 


 ****     INITIAL TRANSIENT SOLUTION       TEMPERATURE =   27.000 DEG C


******************************************************************************



 NODE   VOLTAGE     NODE   VOLTAGE     NODE   VOLTAGE     NODE   VOLTAGE


( OUT2)   28.2000  (N02810)     .6000 (N02842)    1.5000 (N02886)     .6000     

(N03191)   28.2000 (N03449)   28.2000 (N03538)   28.2000 (N03612)   27.6460     

(R_SENSE_1)   28.4820                 




    VOLTAGE SOURCE CURRENTS
    NAME         CURRENT

    V_V6        -1.525E-04
    V_V5         0.000E+00
    V_I_AMP      2.820E+01

    TOTAL POWER DISSIPATION   2.29E-04  WATTS

Reducing minimum delta to make the circuit converge.

ERROR(ORPSIM-15138): Convergence problem in Transient Analysis at Time =  26.13E-09.
         Time step =  465.7E-21, minimum allowable step size =  1.000E-18

  These supply currents failed to converge:

    I(E_U5)                   =   -53.20mA  \         0A



  Last node voltages tried were:

 NODE   VOLTAGE     NODE   VOLTAGE     NODE   VOLTAGE     NODE   VOLTAGE


( OUT2)   28.2000  (N02810)     .6000 (N02842)    1.5000 (N02886)     .6000     

(N03191)   28.2000 (N03449)   28.2000 (N03538)   28.2000 (N03612)   27.6460     

(R_SENSE_1)   28.4820                 


**** Interrupt ****
